# Packages
 &PACKAGES
 useOBCS=.TRUE.,
 useDiagnostics=.TRUE.,
 useICEPLUME=.TRUE.,
 &
